
**** 03/01/16 03:21:36 ****** PSpice Lite (October 2012) ****** ID# 10813 ****

 ** Profile: "SCHEMATIC1-lab03_part1"  [ C:\Users\m\Desktop\CUDenver\csci_1510\labs\lab03\lab03-pspicefiles\schematic1\lab03_part1.si


 ****     CIRCUIT DESCRIPTION


******************************************************************************




** Creating circuit file "lab03_part1.cir" 
** WARNING: THIS AUTOMATICALLY GENERATED FILE MAY BE OVERWRITTEN BY SUBSEQUENT SIMULATIONS

*Libraries: 
* Profile Libraries :
* Local Libraries :
.STMLIB "../../../lab03_stimulus.stl" 
* From [PSPICE NETLIST] section of C:\Users\m\AppData\Roaming\SPB_16.6\cdssetup\OrCAD_PSpice/16.6.0/PSpice.ini file:
.lib "nomd.lib" 

*Analysis directives: 
.TRAN  0 10ms 0 
.OPTIONS ADVCONV
.PROBE64 V(alias(*)) I(alias(*)) W(alias(*)) D(alias(*)) NOISE(alias(*)) 
.INC "..\SCHEMATIC1.net" 



**** INCLUDING SCHEMATIC1.net ****
* source LAB03
.EXTERNAL OUTPUT output
U_w         STIM(1,0) $G_DPWR $G_DGND N02339 IO_STM STIMULUS=w
X_U1A         N02339 N02339 N05350 $G_DPWR $G_DGND 7400 PARAMS:
+ IO_LEVEL=0 MNTYMXDLY=0
U_x         STIM(1,0) $G_DPWR $G_DGND N02684 IO_STM STIMULUS=x
X_U1B         N02684 N02684 N05354 $G_DPWR $G_DGND 7400 PARAMS:
+ IO_LEVEL=0 MNTYMXDLY=0
U_y         STIM(1,0) $G_DPWR $G_DGND N02955 IO_STM STIMULUS=y
X_U2B         N02955 N02955 N05368 $G_DPWR $G_DGND 7400 PARAMS:
+ IO_LEVEL=0 MNTYMXDLY=0
X_U3B         N03287 N03287 N05382 $G_DPWR $G_DGND 7400 PARAMS:
+ IO_LEVEL=0 MNTYMXDLY=0
U_z         STIM(1,0) $G_DPWR $G_DGND N03287 IO_STM STIMULUS=z
X_min1A         N05350 N05354 N05368 N03287 N08707 $G_DPWR $G_DGND 7420 PARAMS:
+ IO_LEVEL=0 MNTYMXDLY=0
X_min2A         N05350 N05354 N02955 N05382 N10677 $G_DPWR $G_DGND 7420 PARAMS:
+ IO_LEVEL=0 MNTYMXDLY=0
X_min4A         N05350 N02684 N05368 N05382 N08422 $G_DPWR $G_DGND 7420 PARAMS:
+ IO_LEVEL=0 MNTYMXDLY=0
X_min7A         N05350 N02684 N02955 N03287 N08406 $G_DPWR $G_DGND 7420 PARAMS:
+ IO_LEVEL=0 MNTYMXDLY=0
X_min8A         N02339 N05354 N05368 N05382 N09475 $G_DPWR $G_DGND 7420 PARAMS:
+ IO_LEVEL=0 MNTYMXDLY=0
X_min11A         N02339 N05354 N02955 N03287 N10693 $G_DPWR $G_DGND 7420
+  PARAMS:
+ IO_LEVEL=0 MNTYMXDLY=0
X_min13A         N02339 N05368 N05368 N03287 N09439 $G_DPWR $G_DGND 7420
+  PARAMS:
+ IO_LEVEL=0 MNTYMXDLY=0
X_min14A         N02339 N02684 N02955 N05382 N09435 $G_DPWR $G_DGND 7420
+  PARAMS:
+ IO_LEVEL=0 MNTYMXDLY=0
X_top         nandA N08707 N10677 N08422 N08406 N08884 $G_DPWR $G_DGND 7420
+  PARAMS:
+ IO_LEVEL=0 MNTYMXDLY=0
X_U5A         N08884 N09483 OUTPUT $G_DPWR $G_DGND 7432 PARAMS:
+ IO_LEVEL=0 MNTYMXDLY=0
X_bottom         nandA N09475 N10693 N09439 N09435 N09483 $G_DPWR $G_DGND 7420
+  PARAMS:
+ IO_LEVEL=0 MNTYMXDLY=0

**** RESUMING lab03_part1.cir ****
.END

ERROR(ORPSIM-15461): Incorrect number of interface nodes for X_top.

ERROR(ORPSIM-15461): Incorrect number of interface nodes for X_bottom.
