
**** 03/02/16 21:08:01 ****** PSpice Lite (October 2012) ****** ID# 10813 ****

 ** Profile: "SCHEMATIC2-lab3_part2"  [ C:\Users\m\Desktop\CUDenver\csci_1510\labs\lab03\lab03-PSpiceFiles\SCHEMATIC2\lab3_part2.sim 


 ****     CIRCUIT DESCRIPTION


******************************************************************************




** Creating circuit file "lab3_part2.cir" 
** WARNING: THIS AUTOMATICALLY GENERATED FILE MAY BE OVERWRITTEN BY SUBSEQUENT SIMULATIONS

*Libraries: 
* Profile Libraries :
* Local Libraries :
.STMLIB "../../../lab03_stimulus.stl" 
* From [PSPICE NETLIST] section of C:\Users\m\AppData\Roaming\SPB_16.6\cdssetup\OrCAD_PSpice/16.6.0/PSpice.ini file:
.lib "nomd.lib" 

*Analysis directives: 
.TRAN  0 10ms 0 
.OPTIONS ADVCONV
.PROBE64 V(alias(*)) I(alias(*)) W(alias(*)) D(alias(*)) NOISE(alias(*)) 
.INC "..\SCHEMATIC2.net" 



**** INCLUDING SCHEMATIC2.net ****
* source LAB03
.EXTERNAL OUTPUT even_parity_bit
X_U1A         N00269 N00384 N00130 $G_DPWR $G_DGND 7486 PARAMS:
+ IO_LEVEL=0 MNTYMXDLY=0
X_U1B         N00225 N00130 EVEN_PARITY_BIT $G_DPWR $G_DGND 7486 PARAMS:
+ IO_LEVEL=0 MNTYMXDLY=0
U_y         STIM(1,0) $G_DPWR $G_DGND N00269 IO_STM STIMULUS=y
U_x         STIM(1,0) $G_DPWR $G_DGND N00225 IO_STM STIMULUS=x
U_z         STIM(1,0) $G_DPWR $G_DGND N00384 IO_STM STIMULUS=z

**** RESUMING lab3_part2.cir ****
.END

* C:\Users\thrallm\Desktop\csci_1510\labs\lab03\lab03_stimulus.stl written on Tue Feb 23 15:00:03 2016
* by Stimulus Editor -- Lite Version 16.6.0
;!Stimulus Get
;! w Digital x Digital y Digital z Digital
;!Ok
;!Plot Axis_Settings
;!Xrange 0s 4ms
;!AutoUniverse
;!XminRes 1ns
;!YminRes 1n
;!Ok
.STIMULUS z STIM (1, 1) ;! CLOCK 8000 0.5 0 0
+   +0s 0
+   +62.5us 1
+   Repeat Forever
+      +62.5us 0
+      +62.5us 1
+   EndRepeat
.STIMULUS y STIM (1, 1) ;! CLOCK 4000 0.5 0 0
+   +0s 0
+   +125us 1
+   Repeat Forever
+      +125us 0
+      +125us 1
+   EndRepeat
.STIMULUS x STIM (1, 1) ;! CLOCK 2000 0.5 0 0
+   +0s 0
+   +250us 1
+   Repeat Forever
+      +250us 0
+      +250us 1
+   EndRepeat
.STIMULUS w STIM (1, 1) ;! CLOCK 1000 0.5 0 0
+   +0s 0
+   +500us 1
+   Repeat Forever
+      +500us 0
+      +500us 1
+   EndRepeat

**** 03/02/16 21:08:01 ****** PSpice Lite (October 2012) ****** ID# 10813 ****

 ** Profile: "SCHEMATIC2-lab3_part2"  [ C:\Users\m\Desktop\CUDenver\csci_1510\labs\lab03\lab03-PSpiceFiles\SCHEMATIC2\lab3_part2.sim 


 ****     Digital Gate MODEL PARAMETERS


******************************************************************************




               D0_GATE         D_86_1          D_86_2          D_86_3          
      TPLHMN    0               3.600000E-09    4.800000E-09    2.400000E-09 
      TPLHTY    0               9.000000E-09   12.000000E-09    6.000000E-09 
      TPLHMX    0              17.000000E-09   24.000000E-09    6.000000E-09 
      TPHLMN    0               2.000000E-09    2.800000E-09    2.400000E-09 
      TPHLTY    0               5.000000E-09    7.000000E-09    6.000000E-09 
      TPHLMX    0              11.000000E-09   16.000000E-09    6.000000E-09 


**** 03/02/16 21:08:01 ****** PSpice Lite (October 2012) ****** ID# 10813 ****

 ** Profile: "SCHEMATIC2-lab3_part2"  [ C:\Users\m\Desktop\CUDenver\csci_1510\labs\lab03\lab03-PSpiceFiles\SCHEMATIC2\lab3_part2.sim 


 ****     Digital IO  MODEL PARAMETERS


******************************************************************************




               IO_STM          IO_STD          
        DRVL    0             104            
        DRVH    0              96.4          
       AtoD1                 AtoD_STD        
       AtoD2                 AtoD_STD_NX     
       AtoD3                 AtoD_STD        
       AtoD4                 AtoD_STD_NX     
       DtoA1 DtoA_STM        DtoA_STD        
       DtoA2 DtoA_STM        DtoA_STD        
       DtoA3 DtoA_STM        DtoA_STD        
       DtoA4 DtoA_STM        DtoA_STD        
      TSWHL1                    1.511000E-09 
      TSWHL2                    1.487000E-09 
      TSWHL3                    1.511000E-09 
      TSWHL4                    1.487000E-09 
      TSWLH1                    3.517000E-09 
      TSWLH2                    3.564000E-09 
      TSWLH3                    3.517000E-09 
      TSWLH4                    3.564000E-09 
       TPWRT  100.000000E+03  100.000000E+03 



          JOB CONCLUDED

**** 03/02/16 21:08:01 ****** PSpice Lite (October 2012) ****** ID# 10813 ****

 ** Profile: "SCHEMATIC2-lab3_part2"  [ C:\Users\m\Desktop\CUDenver\csci_1510\labs\lab03\lab03-PSpiceFiles\SCHEMATIC2\lab3_part2.sim 


 ****     JOB STATISTICS SUMMARY


******************************************************************************



  Total job time                    =        0.00
