
**** 02/15/16 20:55:41 ****** PSpice Lite (October 2012) ****** ID# 10813 ****

 ** Profile: "SCHEMATIC1-lab2_simulation"  [ c:\users\m\desktop\cudenver\1510_labs\lab02\lab2_thrall-pspicefiles\schematic1\lab2_simu


 ****     CIRCUIT DESCRIPTION


******************************************************************************




** Creating circuit file "lab2_simulation.cir" 
** WARNING: THIS AUTOMATICALLY GENERATED FILE MAY BE OVERWRITTEN BY SUBSEQUENT SIMULATIONS

*Libraries: 
* Profile Libraries :
* Local Libraries :
.STMLIB "../../../lab2input.stl" 
* From [PSPICE NETLIST] section of C:\Users\m\AppData\Roaming\SPB_16.6\cdssetup\OrCAD_PSpice/16.6.0/PSpice.ini file:
.lib "nomd.lib" 

*Analysis directives: 
.TRAN  0 10ms 0 
.OPTIONS ADVCONV
.PROBE64 V(alias(*)) I(alias(*)) W(alias(*)) D(alias(*)) NOISE(alias(*)) 
.INC "..\SCHEMATIC1.net" 



**** INCLUDING SCHEMATIC1.net ****
* source LAB2_THRALL
.EXTERNAL OUTPUT andandnot
.EXTERNAL OUTPUT orornot
.EXTERNAL OUTPUT notnotnotandand
.EXTERNAL OUTPUT notnotnotoror
X_U1A         N00330 N00334 N00358 $G_DPWR $G_DGND 7432 PARAMS:
+ IO_LEVEL=0 MNTYMXDLY=0
X_U1B         N00358 N00362 N00729 $G_DPWR $G_DGND 7432 PARAMS:
+ IO_LEVEL=0 MNTYMXDLY=0
U_x         STIM(1,0) $G_DPWR $G_DGND N00330 IO_STM STIMULUS=x
U_y         STIM(1,0) $G_DPWR $G_DGND N00334 IO_STM STIMULUS=y
U_z         STIM(1,0) $G_DPWR $G_DGND N00362 IO_STM STIMULUS=z
X_U2A         N00729 ORORNOT $G_DPWR $G_DGND 7404 PARAMS:
+ IO_LEVEL=0 MNTYMXDLY=0
U_z1         STIM(1,0) $G_DPWR $G_DGND N01369 IO_STM STIMULUS=z
U_x1         STIM(1,0) $G_DPWR $G_DGND N01361 IO_STM STIMULUS=x
U_y1         STIM(1,0) $G_DPWR $G_DGND N01365 IO_STM STIMULUS=y
X_U2B         N01361 N01517 $G_DPWR $G_DGND 7404 PARAMS:
+ IO_LEVEL=0 MNTYMXDLY=0
X_U2C         N01365 N01529 $G_DPWR $G_DGND 7404 PARAMS:
+ IO_LEVEL=0 MNTYMXDLY=0
X_U2D         N01369 N01505 $G_DPWR $G_DGND 7404 PARAMS:
+ IO_LEVEL=0 MNTYMXDLY=0
X_U3A         N01517 N01529 N01477 $G_DPWR $G_DGND 7408 PARAMS:
+ IO_LEVEL=0 MNTYMXDLY=0
X_U3B         N01477 N01505 NOTNOTNOTANDAND $G_DPWR $G_DGND 7408 PARAMS:
+ IO_LEVEL=0 MNTYMXDLY=0
X_U4B         N02340 N02547 NOTNOTNOTOROR $G_DPWR $G_DGND 7432 PARAMS:
+ IO_LEVEL=0 MNTYMXDLY=0
X_U4A         N02536 N02540 N02340 $G_DPWR $G_DGND 7432 PARAMS:
+ IO_LEVEL=0 MNTYMXDLY=0
U_z2         STIM(1,0) $G_DPWR $G_DGND N02528 IO_STM STIMULUS=z
U_y2         STIM(1,0) $G_DPWR $G_DGND N02520 IO_STM STIMULUS=y
U_x2         STIM(1,0) $G_DPWR $G_DGND N02492 IO_STM STIMULUS=x
X_U5A         N02492 N02536 $G_DPWR $G_DGND 7404 PARAMS:
+ IO_LEVEL=0 MNTYMXDLY=0
X_U5B         N02520 N02540 $G_DPWR $G_DGND 7404 PARAMS:
+ IO_LEVEL=0 MNTYMXDLY=0
X_U5C         N02528 N02547 $G_DPWR $G_DGND 7404 PARAMS:
+ IO_LEVEL=0 MNTYMXDLY=0
U_x3         STIM(1,0) $G_DPWR $G_DGND N02871 IO_STM STIMULUS=x
X_U7A         N02937 ANDANDNOT $G_DPWR $G_DGND 7404 PARAMS:
+ IO_LEVEL=0 MNTYMXDLY=0
U_y3         STIM(1,0) $G_DPWR $G_DGND N02877 IO_STM STIMULUS=y
U_z3         STIM(1,0) $G_DPWR $G_DGND N02887 IO_STM STIMULUS=z
X_U8A         N02871 N02877 N03128 $G_DPWR $G_DGND 7408 PARAMS:
+ IO_LEVEL=0 MNTYMXDLY=0
X_U8B         N03128 N02887 N02937 $G_DPWR $G_DGND 7408 PARAMS:
+ IO_LEVEL=0 MNTYMXDLY=0

**** RESUMING lab2_simulation.cir ****
.END

* C:\Users\thrallm\Desktop\1510_Labs\Lab2\lab2input.stl written on Thu Feb 11 14:11:13 2016
* by Stimulus Editor -- Lite Version 16.6.0
;!Stimulus Get
;! x Digital y Digital z Digital
;!Ok
;!Plot Axis_Settings
;!Xrange 0s 4ms
;!AutoUniverse
;!XminRes 1ns
;!YminRes 1n
;!Ok
.STIMULUS x STIM (1, 1) ;! CLOCK 1000 0.5 0 0
+   +0s 0
+   +500us 1
+   Repeat Forever
+      +500us 0
+      +500us 1
+   EndRepeat
.STIMULUS y STIM (1, 1) ;! CLOCK 2000 0.5 0 0
+   +0s 0
+   +250us 1
+   Repeat Forever
+      +250us 0
+      +250us 1
+   EndRepeat
.STIMULUS z STIM (1, 1) ;! CLOCK 4000 0.5 0 0
+   +0s 0
+   +125us 1
+   Repeat Forever
+      +125us 0
+      +125us 1
+   EndRepeat

**** 02/15/16 20:55:41 ****** PSpice Lite (October 2012) ****** ID# 10813 ****

 ** Profile: "SCHEMATIC1-lab2_simulation"  [ c:\users\m\desktop\cudenver\1510_labs\lab02\lab2_thrall-pspicefiles\schematic1\lab2_simu


 ****     Digital Gate MODEL PARAMETERS


******************************************************************************




               D_32            D_04            D_08            
      TPLHMN    4.000000E-09    4.800000E-09    7.000000E-09 
      TPLHTY   10.000000E-09   12.000000E-09   17.500000E-09 
      TPLHMX   15.000000E-09   22.000000E-09   27.000000E-09 
      TPHLMN    5.600000E-09    3.200000E-09    4.800000E-09 
      TPHLTY   14.000000E-09    8.000000E-09   12.000000E-09 
      TPHLMX   22.000000E-09   15.000000E-09   19.000000E-09 


**** 02/15/16 20:55:41 ****** PSpice Lite (October 2012) ****** ID# 10813 ****

 ** Profile: "SCHEMATIC1-lab2_simulation"  [ c:\users\m\desktop\cudenver\1510_labs\lab02\lab2_thrall-pspicefiles\schematic1\lab2_simu


 ****     Digital IO  MODEL PARAMETERS


******************************************************************************




               IO_STM          IO_STD          
        DRVL    0             104            
        DRVH    0              96.4          
       AtoD1                 AtoD_STD        
       AtoD2                 AtoD_STD_NX     
       AtoD3                 AtoD_STD        
       AtoD4                 AtoD_STD_NX     
       DtoA1 DtoA_STM        DtoA_STD        
       DtoA2 DtoA_STM        DtoA_STD        
       DtoA3 DtoA_STM        DtoA_STD        
       DtoA4 DtoA_STM        DtoA_STD        
      TSWHL1                    1.511000E-09 
      TSWHL2                    1.487000E-09 
      TSWHL3                    1.511000E-09 
      TSWHL4                    1.487000E-09 
      TSWLH1                    3.517000E-09 
      TSWLH2                    3.564000E-09 
      TSWLH3                    3.517000E-09 
      TSWLH4                    3.564000E-09 
       TPWRT  100.000000E+03  100.000000E+03 



          JOB CONCLUDED

**** 02/15/16 20:55:41 ****** PSpice Lite (October 2012) ****** ID# 10813 ****

 ** Profile: "SCHEMATIC1-lab2_simulation"  [ c:\users\m\desktop\cudenver\1510_labs\lab02\lab2_thrall-pspicefiles\schematic1\lab2_simu


 ****     JOB STATISTICS SUMMARY


******************************************************************************



  Total job time                    =         .02
